
---------- Begin Simulation Statistics ----------
sim_seconds                                  0.000304                       # Number of seconds simulated
sim_ticks                                   304497500                       # Number of ticks simulated
final_tick                                  304497500                       # Number of ticks from beginning of simulation (restored from checkpoints and never reset)
sim_freq                                 1000000000000                       # Frequency of simulated ticks
host_inst_rate                                1997062                       # Simulator instruction rate (inst/s)
host_op_rate                                  2950983                       # Simulator op (including micro ops) rate (op/s)
host_tick_rate                             1683435797                       # Simulator tick rate (ticks/s)
host_mem_usage                                 655944                       # Number of bytes of host memory used
host_seconds                                     0.18                       # Real time elapsed on the host
sim_insts                                      361196                       # Number of instructions simulated
sim_ops                                        533749                       # Number of ops (including micro ops) simulated
system.voltage_domain.voltage                       1                       # Voltage in Volts
system.clk_domain.clock                          1000                       # Clock period in ticks
system.mem_ctrls.pwrStateResidencyTicks::UNDEFINED    304497500                       # Cumulative time (in ticks) in various power states
system.mem_ctrls.bytes_read::cpu.inst           15296                       # Number of bytes read from this memory
system.mem_ctrls.bytes_read::cpu.data          147392                       # Number of bytes read from this memory
system.mem_ctrls.bytes_read::total             162688                       # Number of bytes read from this memory
system.mem_ctrls.bytes_inst_read::cpu.inst        15296                       # Number of instructions bytes read from this memory
system.mem_ctrls.bytes_inst_read::total         15296                       # Number of instructions bytes read from this memory
system.mem_ctrls.bytes_written::writebacks       140480                       # Number of bytes written to this memory
system.mem_ctrls.bytes_written::total          140480                       # Number of bytes written to this memory
system.mem_ctrls.num_reads::cpu.inst              478                       # Number of read requests responded to by this memory
system.mem_ctrls.num_reads::cpu.data             4606                       # Number of read requests responded to by this memory
system.mem_ctrls.num_reads::total                5084                       # Number of read requests responded to by this memory
system.mem_ctrls.num_writes::writebacks          4390                       # Number of write requests responded to by this memory
system.mem_ctrls.num_writes::total               4390                       # Number of write requests responded to by this memory
system.mem_ctrls.bw_read::cpu.inst           50233582                       # Total read bandwidth from this memory (bytes/s)
system.mem_ctrls.bw_read::cpu.data          484049951                       # Total read bandwidth from this memory (bytes/s)
system.mem_ctrls.bw_read::total             534283533                       # Total read bandwidth from this memory (bytes/s)
system.mem_ctrls.bw_inst_read::cpu.inst      50233582                       # Instruction read bandwidth from this memory (bytes/s)
system.mem_ctrls.bw_inst_read::total         50233582                       # Instruction read bandwidth from this memory (bytes/s)
system.mem_ctrls.bw_write::writebacks       461350257                       # Write bandwidth from this memory (bytes/s)
system.mem_ctrls.bw_write::total            461350257                       # Write bandwidth from this memory (bytes/s)
system.mem_ctrls.bw_total::writebacks       461350257                       # Total bandwidth to/from this memory (bytes/s)
system.mem_ctrls.bw_total::cpu.inst          50233582                       # Total bandwidth to/from this memory (bytes/s)
system.mem_ctrls.bw_total::cpu.data         484049951                       # Total bandwidth to/from this memory (bytes/s)
system.mem_ctrls.bw_total::total            995633790                       # Total bandwidth to/from this memory (bytes/s)
system.mem_ctrls.readReqs                           0                       # Number of read requests accepted
system.mem_ctrls.writeReqs                          0                       # Number of write requests accepted
system.mem_ctrls.readBursts                         0                       # Number of DRAM read bursts, including those serviced by the write queue
system.mem_ctrls.writeBursts                        0                       # Number of DRAM write bursts, including those merged in the write queue
system.mem_ctrls.bytesReadDRAM                      0                       # Total number of bytes read from DRAM
system.mem_ctrls.bytesReadWrQ                       0                       # Total number of bytes read from write queue
system.mem_ctrls.bytesWritten                       0                       # Total number of bytes written to DRAM
system.mem_ctrls.bytesReadSys                       0                       # Total read bytes from the system interface side
system.mem_ctrls.bytesWrittenSys                    0                       # Total written bytes from the system interface side
system.mem_ctrls.servicedByWrQ                      0                       # Number of DRAM read bursts serviced by the write queue
system.mem_ctrls.mergedWrBursts                     0                       # Number of DRAM write bursts merged with an existing one
system.mem_ctrls.neitherReadNorWriteReqs            0                       # Number of requests that are neither read nor write
system.mem_ctrls.perBankRdBursts::0                 0                       # Per bank write bursts
system.mem_ctrls.perBankRdBursts::1                 0                       # Per bank write bursts
system.mem_ctrls.perBankRdBursts::2                 0                       # Per bank write bursts
system.mem_ctrls.perBankRdBursts::3                 0                       # Per bank write bursts
system.mem_ctrls.perBankRdBursts::4                 0                       # Per bank write bursts
system.mem_ctrls.perBankRdBursts::5                 0                       # Per bank write bursts
system.mem_ctrls.perBankRdBursts::6                 0                       # Per bank write bursts
system.mem_ctrls.perBankRdBursts::7                 0                       # Per bank write bursts
system.mem_ctrls.perBankRdBursts::8                 0                       # Per bank write bursts
system.mem_ctrls.perBankRdBursts::9                 0                       # Per bank write bursts
system.mem_ctrls.perBankRdBursts::10                0                       # Per bank write bursts
system.mem_ctrls.perBankRdBursts::11                0                       # Per bank write bursts
system.mem_ctrls.perBankRdBursts::12                0                       # Per bank write bursts
system.mem_ctrls.perBankRdBursts::13                0                       # Per bank write bursts
system.mem_ctrls.perBankRdBursts::14                0                       # Per bank write bursts
system.mem_ctrls.perBankRdBursts::15                0                       # Per bank write bursts
system.mem_ctrls.perBankWrBursts::0                 0                       # Per bank write bursts
system.mem_ctrls.perBankWrBursts::1                 0                       # Per bank write bursts
system.mem_ctrls.perBankWrBursts::2                 0                       # Per bank write bursts
system.mem_ctrls.perBankWrBursts::3                 0                       # Per bank write bursts
system.mem_ctrls.perBankWrBursts::4                 0                       # Per bank write bursts
system.mem_ctrls.perBankWrBursts::5                 0                       # Per bank write bursts
system.mem_ctrls.perBankWrBursts::6                 0                       # Per bank write bursts
system.mem_ctrls.perBankWrBursts::7                 0                       # Per bank write bursts
system.mem_ctrls.perBankWrBursts::8                 0                       # Per bank write bursts
system.mem_ctrls.perBankWrBursts::9                 0                       # Per bank write bursts
system.mem_ctrls.perBankWrBursts::10                0                       # Per bank write bursts
system.mem_ctrls.perBankWrBursts::11                0                       # Per bank write bursts
system.mem_ctrls.perBankWrBursts::12                0                       # Per bank write bursts
system.mem_ctrls.perBankWrBursts::13                0                       # Per bank write bursts
system.mem_ctrls.perBankWrBursts::14                0                       # Per bank write bursts
system.mem_ctrls.perBankWrBursts::15                0                       # Per bank write bursts
system.mem_ctrls.numRdRetry                         0                       # Number of times read queue was full causing retry
system.mem_ctrls.numWrRetry                         0                       # Number of times write queue was full causing retry
system.mem_ctrls.totGap                             0                       # Total gap between requests
system.mem_ctrls.readPktSize::0                     0                       # Read request sizes (log2)
system.mem_ctrls.readPktSize::1                     0                       # Read request sizes (log2)
system.mem_ctrls.readPktSize::2                     0                       # Read request sizes (log2)
system.mem_ctrls.readPktSize::3                     0                       # Read request sizes (log2)
system.mem_ctrls.readPktSize::4                     0                       # Read request sizes (log2)
system.mem_ctrls.readPktSize::5                     0                       # Read request sizes (log2)
system.mem_ctrls.readPktSize::6                     0                       # Read request sizes (log2)
system.mem_ctrls.writePktSize::0                    0                       # Write request sizes (log2)
system.mem_ctrls.writePktSize::1                    0                       # Write request sizes (log2)
system.mem_ctrls.writePktSize::2                    0                       # Write request sizes (log2)
system.mem_ctrls.writePktSize::3                    0                       # Write request sizes (log2)
system.mem_ctrls.writePktSize::4                    0                       # Write request sizes (log2)
system.mem_ctrls.writePktSize::5                    0                       # Write request sizes (log2)
system.mem_ctrls.writePktSize::6                    0                       # Write request sizes (log2)
system.mem_ctrls.rdQLenPdf::0                       0                       # What read queue length does an incoming req see
system.mem_ctrls.rdQLenPdf::1                       0                       # What read queue length does an incoming req see
system.mem_ctrls.rdQLenPdf::2                       0                       # What read queue length does an incoming req see
system.mem_ctrls.rdQLenPdf::3                       0                       # What read queue length does an incoming req see
system.mem_ctrls.rdQLenPdf::4                       0                       # What read queue length does an incoming req see
system.mem_ctrls.rdQLenPdf::5                       0                       # What read queue length does an incoming req see
system.mem_ctrls.rdQLenPdf::6                       0                       # What read queue length does an incoming req see
system.mem_ctrls.rdQLenPdf::7                       0                       # What read queue length does an incoming req see
system.mem_ctrls.rdQLenPdf::8                       0                       # What read queue length does an incoming req see
system.mem_ctrls.rdQLenPdf::9                       0                       # What read queue length does an incoming req see
system.mem_ctrls.rdQLenPdf::10                      0                       # What read queue length does an incoming req see
system.mem_ctrls.rdQLenPdf::11                      0                       # What read queue length does an incoming req see
system.mem_ctrls.rdQLenPdf::12                      0                       # What read queue length does an incoming req see
system.mem_ctrls.rdQLenPdf::13                      0                       # What read queue length does an incoming req see
system.mem_ctrls.rdQLenPdf::14                      0                       # What read queue length does an incoming req see
system.mem_ctrls.rdQLenPdf::15                      0                       # What read queue length does an incoming req see
system.mem_ctrls.rdQLenPdf::16                      0                       # What read queue length does an incoming req see
system.mem_ctrls.rdQLenPdf::17                      0                       # What read queue length does an incoming req see
system.mem_ctrls.rdQLenPdf::18                      0                       # What read queue length does an incoming req see
system.mem_ctrls.rdQLenPdf::19                      0                       # What read queue length does an incoming req see
system.mem_ctrls.rdQLenPdf::20                      0                       # What read queue length does an incoming req see
system.mem_ctrls.rdQLenPdf::21                      0                       # What read queue length does an incoming req see
system.mem_ctrls.rdQLenPdf::22                      0                       # What read queue length does an incoming req see
system.mem_ctrls.rdQLenPdf::23                      0                       # What read queue length does an incoming req see
system.mem_ctrls.rdQLenPdf::24                      0                       # What read queue length does an incoming req see
system.mem_ctrls.rdQLenPdf::25                      0                       # What read queue length does an incoming req see
system.mem_ctrls.rdQLenPdf::26                      0                       # What read queue length does an incoming req see
system.mem_ctrls.rdQLenPdf::27                      0                       # What read queue length does an incoming req see
system.mem_ctrls.rdQLenPdf::28                      0                       # What read queue length does an incoming req see
system.mem_ctrls.rdQLenPdf::29                      0                       # What read queue length does an incoming req see
system.mem_ctrls.rdQLenPdf::30                      0                       # What read queue length does an incoming req see
system.mem_ctrls.rdQLenPdf::31                      0                       # What read queue length does an incoming req see
system.mem_ctrls.wrQLenPdf::0                       0                       # What write queue length does an incoming req see
system.mem_ctrls.wrQLenPdf::1                       0                       # What write queue length does an incoming req see
system.mem_ctrls.wrQLenPdf::2                       0                       # What write queue length does an incoming req see
system.mem_ctrls.wrQLenPdf::3                       0                       # What write queue length does an incoming req see
system.mem_ctrls.wrQLenPdf::4                       0                       # What write queue length does an incoming req see
system.mem_ctrls.wrQLenPdf::5                       0                       # What write queue length does an incoming req see
system.mem_ctrls.wrQLenPdf::6                       0                       # What write queue length does an incoming req see
system.mem_ctrls.wrQLenPdf::7                       0                       # What write queue length does an incoming req see
system.mem_ctrls.wrQLenPdf::8                       0                       # What write queue length does an incoming req see
system.mem_ctrls.wrQLenPdf::9                       0                       # What write queue length does an incoming req see
system.mem_ctrls.wrQLenPdf::10                      0                       # What write queue length does an incoming req see
system.mem_ctrls.wrQLenPdf::11                      0                       # What write queue length does an incoming req see
system.mem_ctrls.wrQLenPdf::12                      0                       # What write queue length does an incoming req see
system.mem_ctrls.wrQLenPdf::13                      0                       # What write queue length does an incoming req see
system.mem_ctrls.wrQLenPdf::14                      0                       # What write queue length does an incoming req see
system.mem_ctrls.wrQLenPdf::15                      0                       # What write queue length does an incoming req see
system.mem_ctrls.wrQLenPdf::16                      0                       # What write queue length does an incoming req see
system.mem_ctrls.wrQLenPdf::17                      0                       # What write queue length does an incoming req see
system.mem_ctrls.wrQLenPdf::18                      0                       # What write queue length does an incoming req see
system.mem_ctrls.wrQLenPdf::19                      0                       # What write queue length does an incoming req see
system.mem_ctrls.wrQLenPdf::20                      0                       # What write queue length does an incoming req see
system.mem_ctrls.wrQLenPdf::21                      0                       # What write queue length does an incoming req see
system.mem_ctrls.wrQLenPdf::22                      0                       # What write queue length does an incoming req see
system.mem_ctrls.wrQLenPdf::23                      0                       # What write queue length does an incoming req see
system.mem_ctrls.wrQLenPdf::24                      0                       # What write queue length does an incoming req see
system.mem_ctrls.wrQLenPdf::25                      0                       # What write queue length does an incoming req see
system.mem_ctrls.wrQLenPdf::26                      0                       # What write queue length does an incoming req see
system.mem_ctrls.wrQLenPdf::27                      0                       # What write queue length does an incoming req see
system.mem_ctrls.wrQLenPdf::28                      0                       # What write queue length does an incoming req see
system.mem_ctrls.wrQLenPdf::29                      0                       # What write queue length does an incoming req see
system.mem_ctrls.wrQLenPdf::30                      0                       # What write queue length does an incoming req see
system.mem_ctrls.wrQLenPdf::31                      0                       # What write queue length does an incoming req see
system.mem_ctrls.wrQLenPdf::32                      0                       # What write queue length does an incoming req see
system.mem_ctrls.wrQLenPdf::33                      0                       # What write queue length does an incoming req see
system.mem_ctrls.wrQLenPdf::34                      0                       # What write queue length does an incoming req see
system.mem_ctrls.wrQLenPdf::35                      0                       # What write queue length does an incoming req see
system.mem_ctrls.wrQLenPdf::36                      0                       # What write queue length does an incoming req see
system.mem_ctrls.wrQLenPdf::37                      0                       # What write queue length does an incoming req see
system.mem_ctrls.wrQLenPdf::38                      0                       # What write queue length does an incoming req see
system.mem_ctrls.wrQLenPdf::39                      0                       # What write queue length does an incoming req see
system.mem_ctrls.wrQLenPdf::40                      0                       # What write queue length does an incoming req see
system.mem_ctrls.wrQLenPdf::41                      0                       # What write queue length does an incoming req see
system.mem_ctrls.wrQLenPdf::42                      0                       # What write queue length does an incoming req see
system.mem_ctrls.wrQLenPdf::43                      0                       # What write queue length does an incoming req see
system.mem_ctrls.wrQLenPdf::44                      0                       # What write queue length does an incoming req see
system.mem_ctrls.wrQLenPdf::45                      0                       # What write queue length does an incoming req see
system.mem_ctrls.wrQLenPdf::46                      0                       # What write queue length does an incoming req see
system.mem_ctrls.wrQLenPdf::47                      0                       # What write queue length does an incoming req see
system.mem_ctrls.wrQLenPdf::48                      0                       # What write queue length does an incoming req see
system.mem_ctrls.wrQLenPdf::49                      0                       # What write queue length does an incoming req see
system.mem_ctrls.wrQLenPdf::50                      0                       # What write queue length does an incoming req see
system.mem_ctrls.wrQLenPdf::51                      0                       # What write queue length does an incoming req see
system.mem_ctrls.wrQLenPdf::52                      0                       # What write queue length does an incoming req see
system.mem_ctrls.wrQLenPdf::53                      0                       # What write queue length does an incoming req see
system.mem_ctrls.wrQLenPdf::54                      0                       # What write queue length does an incoming req see
system.mem_ctrls.wrQLenPdf::55                      0                       # What write queue length does an incoming req see
system.mem_ctrls.wrQLenPdf::56                      0                       # What write queue length does an incoming req see
system.mem_ctrls.wrQLenPdf::57                      0                       # What write queue length does an incoming req see
system.mem_ctrls.wrQLenPdf::58                      0                       # What write queue length does an incoming req see
system.mem_ctrls.wrQLenPdf::59                      0                       # What write queue length does an incoming req see
system.mem_ctrls.wrQLenPdf::60                      0                       # What write queue length does an incoming req see
system.mem_ctrls.wrQLenPdf::61                      0                       # What write queue length does an incoming req see
system.mem_ctrls.wrQLenPdf::62                      0                       # What write queue length does an incoming req see
system.mem_ctrls.wrQLenPdf::63                      0                       # What write queue length does an incoming req see
system.mem_ctrls.totQLat                            0                       # Total ticks spent queuing
system.mem_ctrls.totMemAccLat                       0                       # Total ticks spent from burst creation until serviced by the DRAM
system.mem_ctrls.totBusLat                          0                       # Total ticks spent in databus transfers
system.mem_ctrls.avgQLat                          nan                       # Average queueing delay per DRAM burst
system.mem_ctrls.avgBusLat                        nan                       # Average bus latency per DRAM burst
system.mem_ctrls.avgMemAccLat                     nan                       # Average memory access latency per DRAM burst
system.mem_ctrls.avgRdBW                         0.00                       # Average DRAM read bandwidth in MiByte/s
system.mem_ctrls.avgWrBW                         0.00                       # Average achieved write bandwidth in MiByte/s
system.mem_ctrls.avgRdBWSys                      0.00                       # Average system read bandwidth in MiByte/s
system.mem_ctrls.avgWrBWSys                      0.00                       # Average system write bandwidth in MiByte/s
system.mem_ctrls.peakBW                      12800.00                       # Theoretical peak bandwidth in MiByte/s
system.mem_ctrls.busUtil                         0.00                       # Data bus utilization in percentage
system.mem_ctrls.busUtilRead                     0.00                       # Data bus utilization in percentage for reads
system.mem_ctrls.busUtilWrite                    0.00                       # Data bus utilization in percentage for writes
system.mem_ctrls.avgRdQLen                       0.00                       # Average read queue length when enqueuing
system.mem_ctrls.avgWrQLen                       0.00                       # Average write queue length when enqueuing
system.mem_ctrls.readRowHits                        0                       # Number of row buffer hits during reads
system.mem_ctrls.writeRowHits                       0                       # Number of row buffer hits during writes
system.mem_ctrls.readRowHitRate                   nan                       # Row buffer hit rate for reads
system.mem_ctrls.writeRowHitRate                  nan                       # Row buffer hit rate for writes
system.mem_ctrls.avgGap                           nan                       # Average gap between requests
system.mem_ctrls.pageHitRate                      nan                       # Row buffer hit rate, read and write combined
system.mem_ctrls_0.actEnergy                        0                       # Energy for activate commands per rank (pJ)
system.mem_ctrls_0.preEnergy                        0                       # Energy for precharge commands per rank (pJ)
system.mem_ctrls_0.readEnergy                       0                       # Energy for read commands per rank (pJ)
system.mem_ctrls_0.writeEnergy                      0                       # Energy for write commands per rank (pJ)
system.mem_ctrls_0.refreshEnergy                    0                       # Energy for refresh commands per rank (pJ)
system.mem_ctrls_0.actBackEnergy                    0                       # Energy for active background per rank (pJ)
system.mem_ctrls_0.preBackEnergy            116927040                       # Energy for precharge background per rank (pJ)
system.mem_ctrls_0.actPowerDownEnergy               0                       # Energy for active power-down per rank (pJ)
system.mem_ctrls_0.prePowerDownEnergy               0                       # Energy for precharge power-down per rank (pJ)
system.mem_ctrls_0.selfRefreshEnergy                0                       # Energy for self refresh per rank (pJ)
system.mem_ctrls_0.totalEnergy              116927040                       # Total energy per rank (pJ)
system.mem_ctrls_0.averagePower                   384                       # Core power per rank (mW)
system.mem_ctrls_0.totalIdleTime                    0                       # Total Idle time Per DRAM Rank
system.mem_ctrls_0.memoryStateTime::IDLE    304497500                       # Time in different power states
system.mem_ctrls_0.memoryStateTime::REF             0                       # Time in different power states
system.mem_ctrls_0.memoryStateTime::SREF            0                       # Time in different power states
system.mem_ctrls_0.memoryStateTime::PRE_PDN            0                       # Time in different power states
system.mem_ctrls_0.memoryStateTime::ACT             0                       # Time in different power states
system.mem_ctrls_0.memoryStateTime::ACT_PDN            0                       # Time in different power states
system.mem_ctrls_1.actEnergy                        0                       # Energy for activate commands per rank (pJ)
system.mem_ctrls_1.preEnergy                        0                       # Energy for precharge commands per rank (pJ)
system.mem_ctrls_1.readEnergy                       0                       # Energy for read commands per rank (pJ)
system.mem_ctrls_1.writeEnergy                      0                       # Energy for write commands per rank (pJ)
system.mem_ctrls_1.refreshEnergy                    0                       # Energy for refresh commands per rank (pJ)
system.mem_ctrls_1.actBackEnergy                    0                       # Energy for active background per rank (pJ)
system.mem_ctrls_1.preBackEnergy            116927040                       # Energy for precharge background per rank (pJ)
system.mem_ctrls_1.actPowerDownEnergy               0                       # Energy for active power-down per rank (pJ)
system.mem_ctrls_1.prePowerDownEnergy               0                       # Energy for precharge power-down per rank (pJ)
system.mem_ctrls_1.selfRefreshEnergy                0                       # Energy for self refresh per rank (pJ)
system.mem_ctrls_1.totalEnergy              116927040                       # Total energy per rank (pJ)
system.mem_ctrls_1.averagePower                   384                       # Core power per rank (mW)
system.mem_ctrls_1.totalIdleTime                    0                       # Total Idle time Per DRAM Rank
system.mem_ctrls_1.memoryStateTime::IDLE    304497500                       # Time in different power states
system.mem_ctrls_1.memoryStateTime::REF             0                       # Time in different power states
system.mem_ctrls_1.memoryStateTime::SREF            0                       # Time in different power states
system.mem_ctrls_1.memoryStateTime::PRE_PDN            0                       # Time in different power states
system.mem_ctrls_1.memoryStateTime::ACT             0                       # Time in different power states
system.mem_ctrls_1.memoryStateTime::ACT_PDN            0                       # Time in different power states
system.pwrStateResidencyTicks::UNDEFINED    304497500                       # Cumulative time (in ticks) in various power states
system.cpu_voltage_domain.voltage                   1                       # Voltage in Volts
system.cpu_clk_domain.clock                       500                       # Clock period in ticks
system.cpu.dtb.walker.pwrStateResidencyTicks::UNDEFINED    304497500                       # Cumulative time (in ticks) in various power states
system.cpu.dtb.rdAccesses                         863                       # TLB accesses on read requests
system.cpu.dtb.wrAccesses                       33851                       # TLB accesses on write requests
system.cpu.dtb.rdMisses                            10                       # TLB misses on read requests
system.cpu.dtb.wrMisses                            38                       # TLB misses on write requests
system.cpu.apic_clk_domain.clock                 8000                       # Clock period in ticks
system.cpu.interrupts.pwrStateResidencyTicks::UNDEFINED    304497500                       # Cumulative time (in ticks) in various power states
system.cpu.itb.walker.pwrStateResidencyTicks::UNDEFINED    304497500                       # Cumulative time (in ticks) in various power states
system.cpu.itb.rdAccesses                           0                       # TLB accesses on read requests
system.cpu.itb.wrAccesses                      436443                       # TLB accesses on write requests
system.cpu.itb.rdMisses                             0                       # TLB misses on read requests
system.cpu.itb.wrMisses                            35                       # TLB misses on write requests
system.cpu.workload.numSyscalls                     9                       # Number of system calls
system.cpu.pwrStateResidencyTicks::ON       304497500                       # Cumulative time (in ticks) in various power states
system.cpu.numCycles                           608996                       # number of cpu cycles simulated
system.cpu.numWorkItemsStarted                      0                       # number of work items this cpu started
system.cpu.numWorkItemsCompleted                    0                       # number of work items this cpu completed
system.cpu.committedInsts                      361196                       # Number of instructions committed
system.cpu.committedOps                        533749                       # Number of ops (including micro ops) committed
system.cpu.num_int_alu_accesses                533523                       # Number of integer alu accesses
system.cpu.num_fp_alu_accesses                    474                       # Number of float alu accesses
system.cpu.num_vec_alu_accesses                     0                       # Number of vector alu accesses
system.cpu.num_func_calls                         177                       # number of times a function call or return occured
system.cpu.num_conditional_control_insts        41722                       # number of instructions that are conditional controls
system.cpu.num_int_insts                       533523                       # number of integer instructions
system.cpu.num_fp_insts                           474                       # number of float instructions
system.cpu.num_vec_insts                            0                       # number of vector instructions
system.cpu.num_int_register_reads              877960                       # number of times the integer registers were read
system.cpu.num_int_register_writes             453580                       # number of times the integer registers were written
system.cpu.num_fp_register_reads                  664                       # number of times the floating registers were read
system.cpu.num_fp_register_writes                 258                       # number of times the floating registers were written
system.cpu.num_vec_register_reads                   0                       # number of times the vector registers were read
system.cpu.num_vec_register_writes                  0                       # number of times the vector registers were written
system.cpu.num_cc_register_reads               242919                       # number of times the CC registers were read
system.cpu.num_cc_register_writes              289733                       # number of times the CC registers were written
system.cpu.num_mem_refs                         34713                       # number of memory refs
system.cpu.num_load_insts                         862                       # Number of load instructions
system.cpu.num_store_insts                      33851                       # Number of store instructions
system.cpu.num_idle_cycles                          0                       # Number of idle cycles
system.cpu.num_busy_cycles                     608996                       # Number of busy cycles
system.cpu.not_idle_fraction                        1                       # Percentage of non-idle cycles
system.cpu.idle_fraction                            0                       # Percentage of idle cycles
system.cpu.Branches                             46089                       # Number of branches fetched
system.cpu.op_class::No_OpClass                    29      0.01%      0.01% # Class of executed instruction
system.cpu.op_class::IntAlu                    498729     93.44%     93.44% # Class of executed instruction
system.cpu.op_class::IntMult                        5      0.00%     93.45% # Class of executed instruction
system.cpu.op_class::IntDiv                        21      0.00%     93.45% # Class of executed instruction
system.cpu.op_class::FloatAdd                     252      0.05%     93.50% # Class of executed instruction
system.cpu.op_class::FloatCmp                       0      0.00%     93.50% # Class of executed instruction
system.cpu.op_class::FloatCvt                       0      0.00%     93.50% # Class of executed instruction
system.cpu.op_class::FloatMult                      0      0.00%     93.50% # Class of executed instruction
system.cpu.op_class::FloatMultAcc                   0      0.00%     93.50% # Class of executed instruction
system.cpu.op_class::FloatDiv                       0      0.00%     93.50% # Class of executed instruction
system.cpu.op_class::FloatMisc                      0      0.00%     93.50% # Class of executed instruction
system.cpu.op_class::FloatSqrt                      0      0.00%     93.50% # Class of executed instruction
system.cpu.op_class::SimdAdd                        0      0.00%     93.50% # Class of executed instruction
system.cpu.op_class::SimdAddAcc                     0      0.00%     93.50% # Class of executed instruction
system.cpu.op_class::SimdAlu                        0      0.00%     93.50% # Class of executed instruction
system.cpu.op_class::SimdCmp                        0      0.00%     93.50% # Class of executed instruction
system.cpu.op_class::SimdCvt                        0      0.00%     93.50% # Class of executed instruction
system.cpu.op_class::SimdMisc                       0      0.00%     93.50% # Class of executed instruction
system.cpu.op_class::SimdMult                       0      0.00%     93.50% # Class of executed instruction
system.cpu.op_class::SimdMultAcc                    0      0.00%     93.50% # Class of executed instruction
system.cpu.op_class::SimdShift                      0      0.00%     93.50% # Class of executed instruction
system.cpu.op_class::SimdShiftAcc                   0      0.00%     93.50% # Class of executed instruction
system.cpu.op_class::SimdSqrt                       0      0.00%     93.50% # Class of executed instruction
system.cpu.op_class::SimdFloatAdd                   0      0.00%     93.50% # Class of executed instruction
system.cpu.op_class::SimdFloatAlu                   0      0.00%     93.50% # Class of executed instruction
system.cpu.op_class::SimdFloatCmp                   0      0.00%     93.50% # Class of executed instruction
system.cpu.op_class::SimdFloatCvt                   0      0.00%     93.50% # Class of executed instruction
system.cpu.op_class::SimdFloatDiv                   0      0.00%     93.50% # Class of executed instruction
system.cpu.op_class::SimdFloatMisc                  0      0.00%     93.50% # Class of executed instruction
system.cpu.op_class::SimdFloatMult                  0      0.00%     93.50% # Class of executed instruction
system.cpu.op_class::SimdFloatMultAcc               0      0.00%     93.50% # Class of executed instruction
system.cpu.op_class::SimdFloatSqrt                  0      0.00%     93.50% # Class of executed instruction
system.cpu.op_class::MemRead                      804      0.15%     93.65% # Class of executed instruction
system.cpu.op_class::MemWrite                   33699      6.31%     99.96% # Class of executed instruction
system.cpu.op_class::FloatMemRead                  58      0.01%     99.97% # Class of executed instruction
system.cpu.op_class::FloatMemWrite                152      0.03%    100.00% # Class of executed instruction
system.cpu.op_class::IprAccess                      0      0.00%    100.00% # Class of executed instruction
system.cpu.op_class::InstPrefetch                   0      0.00%    100.00% # Class of executed instruction
system.cpu.op_class::total                     533749                       # Class of executed instruction
system.cpu.dcache.tags.pwrStateResidencyTicks::UNDEFINED    304497500                       # Cumulative time (in ticks) in various power states
system.cpu.dcache.tags.replacements              4574                       # number of replacements
system.cpu.dcache.tags.tagsinuse            31.972584                       # Cycle average of tags in use
system.cpu.dcache.tags.total_refs               30108                       # Total number of references to valid blocks.
system.cpu.dcache.tags.sampled_refs              4606                       # Sample count of references to valid blocks.
system.cpu.dcache.tags.avg_refs              6.536691                       # Average number of references to valid blocks.
system.cpu.dcache.tags.warmup_cycle              1000                       # Cycle when the warmup percentage was hit.
system.cpu.dcache.tags.occ_blocks::cpu.data    31.972584                       # Average occupied blocks per requestor
system.cpu.dcache.tags.occ_percent::cpu.data     0.999143                       # Average percentage of cache occupancy
system.cpu.dcache.tags.occ_percent::total     0.999143                       # Average percentage of cache occupancy
system.cpu.dcache.tags.occ_task_id_blocks::1024           32                       # Occupied blocks per task id
system.cpu.dcache.tags.age_task_id_blocks_1024::0           32                       # Occupied blocks per task id
system.cpu.dcache.tags.occ_task_id_percent::1024            1                       # Percentage of cache occupancy per task id
system.cpu.dcache.tags.tag_accesses             39320                       # Number of tag accesses
system.cpu.dcache.tags.data_accesses            39320                       # Number of data accesses
system.cpu.dcache.pwrStateResidencyTicks::UNDEFINED    304497500                       # Cumulative time (in ticks) in various power states
system.cpu.dcache.ReadReq_hits::cpu.data          599                       # number of ReadReq hits
system.cpu.dcache.ReadReq_hits::total             599                       # number of ReadReq hits
system.cpu.dcache.WriteReq_hits::cpu.data        29509                       # number of WriteReq hits
system.cpu.dcache.WriteReq_hits::total          29509                       # number of WriteReq hits
system.cpu.dcache.demand_hits::cpu.data         30108                       # number of demand (read+write) hits
system.cpu.dcache.demand_hits::total            30108                       # number of demand (read+write) hits
system.cpu.dcache.overall_hits::cpu.data        30108                       # number of overall hits
system.cpu.dcache.overall_hits::total           30108                       # number of overall hits
system.cpu.dcache.ReadReq_misses::cpu.data          264                       # number of ReadReq misses
system.cpu.dcache.ReadReq_misses::total           264                       # number of ReadReq misses
system.cpu.dcache.WriteReq_misses::cpu.data         4342                       # number of WriteReq misses
system.cpu.dcache.WriteReq_misses::total         4342                       # number of WriteReq misses
system.cpu.dcache.demand_misses::cpu.data         4606                       # number of demand (read+write) misses
system.cpu.dcache.demand_misses::total           4606                       # number of demand (read+write) misses
system.cpu.dcache.overall_misses::cpu.data         4606                       # number of overall misses
system.cpu.dcache.overall_misses::total          4606                       # number of overall misses
system.cpu.dcache.ReadReq_accesses::cpu.data          863                       # number of ReadReq accesses(hits+misses)
system.cpu.dcache.ReadReq_accesses::total          863                       # number of ReadReq accesses(hits+misses)
system.cpu.dcache.WriteReq_accesses::cpu.data        33851                       # number of WriteReq accesses(hits+misses)
system.cpu.dcache.WriteReq_accesses::total        33851                       # number of WriteReq accesses(hits+misses)
system.cpu.dcache.demand_accesses::cpu.data        34714                       # number of demand (read+write) accesses
system.cpu.dcache.demand_accesses::total        34714                       # number of demand (read+write) accesses
system.cpu.dcache.overall_accesses::cpu.data        34714                       # number of overall (read+write) accesses
system.cpu.dcache.overall_accesses::total        34714                       # number of overall (read+write) accesses
system.cpu.dcache.ReadReq_miss_rate::cpu.data     0.305910                       # miss rate for ReadReq accesses
system.cpu.dcache.ReadReq_miss_rate::total     0.305910                       # miss rate for ReadReq accesses
system.cpu.dcache.WriteReq_miss_rate::cpu.data     0.128268                       # miss rate for WriteReq accesses
system.cpu.dcache.WriteReq_miss_rate::total     0.128268                       # miss rate for WriteReq accesses
system.cpu.dcache.demand_miss_rate::cpu.data     0.132684                       # miss rate for demand accesses
system.cpu.dcache.demand_miss_rate::total     0.132684                       # miss rate for demand accesses
system.cpu.dcache.overall_miss_rate::cpu.data     0.132684                       # miss rate for overall accesses
system.cpu.dcache.overall_miss_rate::total     0.132684                       # miss rate for overall accesses
system.cpu.dcache.blocked_cycles::no_mshrs            0                       # number of cycles access was blocked
system.cpu.dcache.blocked_cycles::no_targets            0                       # number of cycles access was blocked
system.cpu.dcache.blocked::no_mshrs                 0                       # number of cycles access was blocked
system.cpu.dcache.blocked::no_targets               0                       # number of cycles access was blocked
system.cpu.dcache.avg_blocked_cycles::no_mshrs          nan                       # average number of cycles each access was blocked
system.cpu.dcache.avg_blocked_cycles::no_targets          nan                       # average number of cycles each access was blocked
system.cpu.dcache.writebacks::writebacks         4390                       # number of writebacks
system.cpu.dcache.writebacks::total              4390                       # number of writebacks
system.cpu.dtb_walker_cache.tags.pwrStateResidencyTicks::UNDEFINED    304497500                       # Cumulative time (in ticks) in various power states
system.cpu.dtb_walker_cache.tags.replacements            0                       # number of replacements
system.cpu.dtb_walker_cache.tags.tagsinuse            0                       # Cycle average of tags in use
system.cpu.dtb_walker_cache.tags.total_refs            0                       # Total number of references to valid blocks.
system.cpu.dtb_walker_cache.tags.sampled_refs            0                       # Sample count of references to valid blocks.
system.cpu.dtb_walker_cache.tags.avg_refs          nan                       # Average number of references to valid blocks.
system.cpu.dtb_walker_cache.tags.warmup_cycle            0                       # Cycle when the warmup percentage was hit.
system.cpu.dtb_walker_cache.tags.tag_accesses            0                       # Number of tag accesses
system.cpu.dtb_walker_cache.tags.data_accesses            0                       # Number of data accesses
system.cpu.dtb_walker_cache.pwrStateResidencyTicks::UNDEFINED    304497500                       # Cumulative time (in ticks) in various power states
system.cpu.dtb_walker_cache.blocked_cycles::no_mshrs            0                       # number of cycles access was blocked
system.cpu.dtb_walker_cache.blocked_cycles::no_targets            0                       # number of cycles access was blocked
system.cpu.dtb_walker_cache.blocked::no_mshrs            0                       # number of cycles access was blocked
system.cpu.dtb_walker_cache.blocked::no_targets            0                       # number of cycles access was blocked
system.cpu.dtb_walker_cache.avg_blocked_cycles::no_mshrs          nan                       # average number of cycles each access was blocked
system.cpu.dtb_walker_cache.avg_blocked_cycles::no_targets          nan                       # average number of cycles each access was blocked
system.cpu.icache.tags.pwrStateResidencyTicks::UNDEFINED    304497500                       # Cumulative time (in ticks) in various power states
system.cpu.icache.tags.replacements                20                       # number of replacements
system.cpu.icache.tags.tagsinuse           421.621623                       # Cycle average of tags in use
system.cpu.icache.tags.total_refs              435965                       # Total number of references to valid blocks.
system.cpu.icache.tags.sampled_refs               478                       # Sample count of references to valid blocks.
system.cpu.icache.tags.avg_refs            912.060669                       # Average number of references to valid blocks.
system.cpu.icache.tags.warmup_cycle                 0                       # Cycle when the warmup percentage was hit.
system.cpu.icache.tags.occ_blocks::cpu.inst   421.621623                       # Average occupied blocks per requestor
system.cpu.icache.tags.occ_percent::cpu.inst     0.411740                       # Average percentage of cache occupancy
system.cpu.icache.tags.occ_percent::total     0.411740                       # Average percentage of cache occupancy
system.cpu.icache.tags.occ_task_id_blocks::1024          458                       # Occupied blocks per task id
system.cpu.icache.tags.age_task_id_blocks_1024::0           37                       # Occupied blocks per task id
system.cpu.icache.tags.age_task_id_blocks_1024::2          421                       # Occupied blocks per task id
system.cpu.icache.tags.occ_task_id_percent::1024     0.447266                       # Percentage of cache occupancy per task id
system.cpu.icache.tags.tag_accesses            873364                       # Number of tag accesses
system.cpu.icache.tags.data_accesses           873364                       # Number of data accesses
system.cpu.icache.pwrStateResidencyTicks::UNDEFINED    304497500                       # Cumulative time (in ticks) in various power states
system.cpu.icache.ReadReq_hits::cpu.inst       435965                       # number of ReadReq hits
system.cpu.icache.ReadReq_hits::total          435965                       # number of ReadReq hits
system.cpu.icache.demand_hits::cpu.inst        435965                       # number of demand (read+write) hits
system.cpu.icache.demand_hits::total           435965                       # number of demand (read+write) hits
system.cpu.icache.overall_hits::cpu.inst       435965                       # number of overall hits
system.cpu.icache.overall_hits::total          435965                       # number of overall hits
system.cpu.icache.ReadReq_misses::cpu.inst          478                       # number of ReadReq misses
system.cpu.icache.ReadReq_misses::total           478                       # number of ReadReq misses
system.cpu.icache.demand_misses::cpu.inst          478                       # number of demand (read+write) misses
system.cpu.icache.demand_misses::total            478                       # number of demand (read+write) misses
system.cpu.icache.overall_misses::cpu.inst          478                       # number of overall misses
system.cpu.icache.overall_misses::total           478                       # number of overall misses
system.cpu.icache.ReadReq_accesses::cpu.inst       436443                       # number of ReadReq accesses(hits+misses)
system.cpu.icache.ReadReq_accesses::total       436443                       # number of ReadReq accesses(hits+misses)
system.cpu.icache.demand_accesses::cpu.inst       436443                       # number of demand (read+write) accesses
system.cpu.icache.demand_accesses::total       436443                       # number of demand (read+write) accesses
system.cpu.icache.overall_accesses::cpu.inst       436443                       # number of overall (read+write) accesses
system.cpu.icache.overall_accesses::total       436443                       # number of overall (read+write) accesses
system.cpu.icache.ReadReq_miss_rate::cpu.inst     0.001095                       # miss rate for ReadReq accesses
system.cpu.icache.ReadReq_miss_rate::total     0.001095                       # miss rate for ReadReq accesses
system.cpu.icache.demand_miss_rate::cpu.inst     0.001095                       # miss rate for demand accesses
system.cpu.icache.demand_miss_rate::total     0.001095                       # miss rate for demand accesses
system.cpu.icache.overall_miss_rate::cpu.inst     0.001095                       # miss rate for overall accesses
system.cpu.icache.overall_miss_rate::total     0.001095                       # miss rate for overall accesses
system.cpu.icache.blocked_cycles::no_mshrs            0                       # number of cycles access was blocked
system.cpu.icache.blocked_cycles::no_targets            0                       # number of cycles access was blocked
system.cpu.icache.blocked::no_mshrs                 0                       # number of cycles access was blocked
system.cpu.icache.blocked::no_targets               0                       # number of cycles access was blocked
system.cpu.icache.avg_blocked_cycles::no_mshrs          nan                       # average number of cycles each access was blocked
system.cpu.icache.avg_blocked_cycles::no_targets          nan                       # average number of cycles each access was blocked
system.cpu.icache.writebacks::writebacks           20                       # number of writebacks
system.cpu.icache.writebacks::total                20                       # number of writebacks
system.cpu.itb_walker_cache.tags.pwrStateResidencyTicks::UNDEFINED    304497500                       # Cumulative time (in ticks) in various power states
system.cpu.itb_walker_cache.tags.replacements            0                       # number of replacements
system.cpu.itb_walker_cache.tags.tagsinuse            0                       # Cycle average of tags in use
system.cpu.itb_walker_cache.tags.total_refs            0                       # Total number of references to valid blocks.
system.cpu.itb_walker_cache.tags.sampled_refs            0                       # Sample count of references to valid blocks.
system.cpu.itb_walker_cache.tags.avg_refs          nan                       # Average number of references to valid blocks.
system.cpu.itb_walker_cache.tags.warmup_cycle            0                       # Cycle when the warmup percentage was hit.
system.cpu.itb_walker_cache.tags.tag_accesses            0                       # Number of tag accesses
system.cpu.itb_walker_cache.tags.data_accesses            0                       # Number of data accesses
system.cpu.itb_walker_cache.pwrStateResidencyTicks::UNDEFINED    304497500                       # Cumulative time (in ticks) in various power states
system.cpu.itb_walker_cache.blocked_cycles::no_mshrs            0                       # number of cycles access was blocked
system.cpu.itb_walker_cache.blocked_cycles::no_targets            0                       # number of cycles access was blocked
system.cpu.itb_walker_cache.blocked::no_mshrs            0                       # number of cycles access was blocked
system.cpu.itb_walker_cache.blocked::no_targets            0                       # number of cycles access was blocked
system.cpu.itb_walker_cache.avg_blocked_cycles::no_mshrs          nan                       # average number of cycles each access was blocked
system.cpu.itb_walker_cache.avg_blocked_cycles::no_targets          nan                       # average number of cycles each access was blocked
system.membus.snoop_filter.tot_requests          9678                       # Total number of requests made to the snoop filter.
system.membus.snoop_filter.hit_single_requests         4594                       # Number of requests hitting in the snoop filter with a single holder of the requested data.
system.membus.snoop_filter.hit_multi_requests            0                       # Number of requests hitting in the snoop filter with multiple (>1) holders of the requested data.
system.membus.snoop_filter.tot_snoops               0                       # Total number of snoops made to the snoop filter.
system.membus.snoop_filter.hit_single_snoops            0                       # Number of snoops hitting in the snoop filter with a single holder of the requested data.
system.membus.snoop_filter.hit_multi_snoops            0                       # Number of snoops hitting in the snoop filter with multiple (>1) holders of the requested data.
system.membus.pwrStateResidencyTicks::UNDEFINED    304497500                       # Cumulative time (in ticks) in various power states
system.membus.trans_dist::ReadResp                742                       # Transaction distribution
system.membus.trans_dist::WritebackDirty         4390                       # Transaction distribution
system.membus.trans_dist::WritebackClean           20                       # Transaction distribution
system.membus.trans_dist::CleanEvict              184                       # Transaction distribution
system.membus.trans_dist::ReadExReq              4342                       # Transaction distribution
system.membus.trans_dist::ReadExResp             4342                       # Transaction distribution
system.membus.trans_dist::ReadCleanReq            478                       # Transaction distribution
system.membus.trans_dist::ReadSharedReq           264                       # Transaction distribution
system.membus.pkt_count_system.cpu.icache.mem_side::system.mem_ctrls.port          976                       # Packet count per connected master and slave (bytes)
system.membus.pkt_count_system.cpu.icache.mem_side::total          976                       # Packet count per connected master and slave (bytes)
system.membus.pkt_count_system.cpu.dcache.mem_side::system.mem_ctrls.port        13786                       # Packet count per connected master and slave (bytes)
system.membus.pkt_count_system.cpu.dcache.mem_side::total        13786                       # Packet count per connected master and slave (bytes)
system.membus.pkt_count::total                  14762                       # Packet count per connected master and slave (bytes)
system.membus.pkt_size_system.cpu.icache.mem_side::system.mem_ctrls.port        15936                       # Cumulative packet size per connected master and slave (bytes)
system.membus.pkt_size_system.cpu.icache.mem_side::total        15936                       # Cumulative packet size per connected master and slave (bytes)
system.membus.pkt_size_system.cpu.dcache.mem_side::system.mem_ctrls.port       287872                       # Cumulative packet size per connected master and slave (bytes)
system.membus.pkt_size_system.cpu.dcache.mem_side::total       287872                       # Cumulative packet size per connected master and slave (bytes)
system.membus.pkt_size::total                  303808                       # Cumulative packet size per connected master and slave (bytes)
system.membus.snoops                                0                       # Total snoops (count)
system.membus.snoopTraffic                          0                       # Total snoop traffic (bytes)
system.membus.snoop_fanout::samples              5084                       # Request fanout histogram
system.membus.snoop_fanout::mean                    0                       # Request fanout histogram
system.membus.snoop_fanout::stdev                   0                       # Request fanout histogram
system.membus.snoop_fanout::underflows              0      0.00%      0.00% # Request fanout histogram
system.membus.snoop_fanout::0                    5084    100.00%    100.00% # Request fanout histogram
system.membus.snoop_fanout::1                       0      0.00%    100.00% # Request fanout histogram
system.membus.snoop_fanout::2                       0      0.00%    100.00% # Request fanout histogram
system.membus.snoop_fanout::3                       0      0.00%    100.00% # Request fanout histogram
system.membus.snoop_fanout::4                       0      0.00%    100.00% # Request fanout histogram
system.membus.snoop_fanout::overflows               0      0.00%    100.00% # Request fanout histogram
system.membus.snoop_fanout::min_value               0                       # Request fanout histogram
system.membus.snoop_fanout::max_value               0                       # Request fanout histogram
system.membus.snoop_fanout::total                5084                       # Request fanout histogram

---------- End Simulation Statistics   ----------
